<routes xmlns:xsi="http://www.w3.org/2001/XMLSchema-instance" xsi:noNamespaceSchemaLocation="http://sumo-sim.org/xsd/routes_file.xsd">
    <vType color="blue" guiShape="passenger" id="HumanStandard" length="4.00">
        <carFollowing-Krauss accel="2.50" decel="4.50" sigma="0.00" tau="0.21" />
    </vType>
    <vType color="magenta" guiShape="passenger" id="HumanCoverageRouted" length="4.00">
        <carFollowing-Krauss accel="2.50" decel="4.50" sigma="0.00" tau="0.21" />
    </vType>
    <vehicle depart="0.00" id="0" type="HumanStandard">
        <route edges="1/0to0/0 0/0to0/1 0/1to0/2 0/2to0/3 0/3to0/4 0/4to0/5 0/5to0/6 0/6to1/6 1/6to2/6 2/6to3/6 3/6to4/6 4/6to5/6 5/6to6/6 6/6to7/6 7/6to8/6" />
    </vehicle>
    <vehicle depart="0.50" id="1" type="HumanStandard">
        <route edges="3/9to2/9 2/9to1/9 1/9to0/9 0/9to0/8 0/8to0/7 0/7to0/6 0/6to0/5 0/5to0/4 0/4to0/3 0/3to0/2 0/2to0/1 0/1to0/0 0/0to1/0" />
    </vehicle>
    <vehicle depart="1.00" id="2" type="HumanStandard">
        <route edges="top5to5/9 5/9to5/8 5/8to5/7 5/7to5/6 5/6to5/5 5/5to5/4 5/4to5/3 5/3to5/2 5/2to5/1" />
    </vehicle>
    <vehicle depart="1.50" id="3" type="HumanStandard">
        <route edges="8/8to7/8 7/8to6/8 6/8to5/8 5/8to4/8 4/8to3/8 3/8to2/8 2/8to1/8 1/8to0/8 0/8to0/7 0/7to0/6 0/6toleft6" />
    </vehicle>
    <vehicle depart="2.00" id="4" type="HumanStandard">
        <route edges="bottom9to9/0 9/0to8/0 8/0to7/0 7/0to6/0 6/0to5/0 5/0to4/0 4/0to3/0 3/0to3/1 3/1to3/2 3/2to3/3 3/3to3/4 3/4to3/5 3/5to3/6 3/6to3/7 3/7to3/8 3/8to4/8" />
    </vehicle>
    <vehicle depart="2.50" id="5" type="HumanStandard">
        <route edges="3/0to4/0 4/0to4/1 4/1to3/1 3/1to2/1 2/1to1/1 1/1to1/2 1/2to1/3 1/3to1/4 1/4to1/5 1/5to1/6 1/6to1/7 1/7to1/8 1/8to1/9 1/9totop1" />
    </vehicle>
    <vehicle depart="3.00" id="6" type="HumanStandard">
        <route edges="4/0to3/0 3/0to3/1 3/1to3/2 3/2to3/3 3/3to3/4 3/4to3/5 3/5to3/6 3/6to3/7 3/7to3/8 3/8to3/9 3/9to4/9 4/9to5/9" />
    </vehicle>
    <vehicle depart="3.50" id="7" type="HumanStandard">
        <route edges="0/2to1/2 1/2to1/1 1/1to2/1 2/1to3/1 3/1to4/1 4/1to5/1 5/1to6/1 6/1to7/1 7/1to8/1 8/1to9/1 9/1to9/2" />
    </vehicle>
    <vehicle depart="4.00" id="8" type="HumanStandard">
        <route edges="left9to0/9 0/9to0/8 0/8to0/7 0/7to1/7 1/7to2/7 2/7to3/7 3/7to4/7 4/7to5/7 5/7to6/7 6/7to7/7 7/7to8/7 8/7to9/7 9/7to9/6 9/6to8/6" />
    </vehicle>
    <vehicle depart="4.50" id="9" type="HumanStandard">
        <route edges="9/0to9/1 9/1to8/1 8/1to7/1 7/1to6/1 6/1to5/1 5/1to4/1 4/1to3/1 3/1to2/1 2/1to1/1 1/1to1/2 1/2to1/3 1/3to1/4 1/4to1/5 1/5to0/5 0/5to0/4" />
    </vehicle>
    <vehicle depart="5.00" id="10" type="HumanStandard">
        <route edges="8/6to8/5 8/5to7/5 7/5to6/5 6/5to5/5 5/5to4/5 4/5to3/5 3/5to2/5 2/5to1/5 1/5to0/5 0/5to0/4 0/4to0/3 0/3to0/2 0/2to0/1 0/1to0/0 0/0toleft0" />
    </vehicle>
    <vehicle depart="5.50" id="11" type="HumanStandard">
        <route edges="9/2to9/3 9/3to8/3 8/3to7/3 7/3to6/3 6/3to5/3 5/3to4/3 4/3to3/3 3/3to3/4 3/4to3/5 3/5to3/6 3/6to3/7 3/7to3/8 3/8to2/8" />
    </vehicle>
    <vehicle depart="6.00" id="12" type="HumanStandard">
        <route edges="bottom5to5/0 5/0to4/0 4/0to3/0 3/0to3/1 3/1to3/2 3/2to3/3 3/3to3/4 3/4to3/5 3/5to3/6 3/6to3/7 3/7to3/8 3/8to3/9 3/9to4/9" />
    </vehicle>
    <vehicle depart="6.50" id="13" type="HumanStandard">
        <route edges="7/0to7/1 7/1to6/1 6/1to5/1 5/1to4/1 4/1to3/1 3/1to2/1 2/1to1/1 1/1to0/1 0/1to0/2 0/2to0/3 0/3to0/4 0/4to0/5 0/5to0/6 0/6to0/7 0/7to0/8 0/8toleft8" />
    </vehicle>
    <vehicle depart="7.00" id="14" type="HumanStandard">
        <route edges="8/6to9/6 9/6to9/5 9/5to8/5 8/5to7/5 7/5to6/5 6/5to5/5 5/5to4/5 4/5to3/5 3/5to2/5 2/5to1/5 1/5to0/5 0/5to0/4 0/4to0/3 0/3to0/2 0/2to0/1 0/1to0/0" />
    </vehicle>
    <vehicle depart="7.50" id="15" type="HumanStandard">
        <route edges="0/2to0/1 0/1to1/1 1/1to1/2 1/2to1/3 1/3to1/4 1/4to1/5 1/5to1/6 1/6to1/7 1/7to2/7 2/7to3/7 3/7to4/7 4/7to5/7 5/7to6/7 6/7to7/7 7/7to8/7 8/7to9/7" />
    </vehicle>
    <vehicle depart="8.00" id="16" type="HumanStandard">
        <route edges="top3to3/9 3/9to3/8 3/8to3/7 3/7to3/6 3/6to3/5 3/5to3/4 3/4to3/3 3/3to3/2 3/2to3/1 3/1to4/1 4/1to5/1 5/1to6/1 6/1to7/1 7/1to7/0 7/0to6/0" />
    </vehicle>
    <vehicle depart="8.50" id="17" type="HumanStandard">
        <route edges="0/9to1/9 1/9to1/8 1/8to1/7 1/7to1/6 1/6to1/5 1/5to2/5 2/5to3/5 3/5to4/5 4/5to5/5 5/5to6/5 6/5to7/5 7/5to8/5 8/5to8/4" />
    </vehicle>
    <vehicle depart="9.00" id="18" type="HumanStandard">
        <route edges="1/8to2/8 2/8to2/7 2/7to2/6 2/6to2/5 2/5to2/4 2/4to2/3 2/3to2/2 2/2to2/1 2/1to2/0 2/0to3/0 3/0tobottom3" />
    </vehicle>
    <vehicle depart="9.50" id="19" type="HumanStandard">
        <route edges="right9to9/9 9/9to8/9 8/9to7/9 7/9to6/9 6/9to5/9 5/9to4/9 4/9to3/9 3/9to2/9 2/9to1/9 1/9to1/8 1/8to1/7 1/7to0/7 0/7to0/8" />
    </vehicle>
    <vehicle depart="10.00" id="20" type="HumanStandard">
        <route edges="1/7to0/7 0/7to0/6 0/6to0/5 0/5to0/4 0/4to0/3 0/3to0/2 0/2to0/1 0/1to0/0 0/0to1/0 1/0to2/0 2/0to3/0 3/0to4/0 4/0to5/0 5/0to6/0 6/0to7/0 7/0to8/0 8/0to9/0 9/0toright0" />
    </vehicle>
    <vehicle depart="10.50" id="21" type="HumanStandard">
        <route edges="7/8to6/8 6/8to5/8 5/8to4/8 4/8to3/8 3/8to2/8 2/8to2/7 2/7to2/6 2/6to2/5 2/5to2/4 2/4to2/3 2/3to2/2 2/2to2/1 2/1to1/1" />
    </vehicle>
    <vehicle depart="11.00" id="22" type="HumanStandard">
        <route edges="7/0to6/0 6/0to5/0 5/0to5/1 5/1to5/2 5/2to5/3 5/3to5/4 5/4to5/5 5/5to5/6 5/6to5/7 5/7to5/8 5/8to5/9 5/9to6/9" />
    </vehicle>
    <vehicle depart="11.50" id="23" type="HumanStandard">
        <route edges="0/0to0/1 0/1to0/2 0/2to0/3 0/3to0/4 0/4to0/5 0/5to0/6 0/6to0/7 0/7to1/7 1/7to2/7 2/7to3/7 3/7to4/7 4/7to5/7 5/7to6/7 6/7to7/7 7/7to8/7" />
    </vehicle>
    <vehicle depart="12.00" id="24" type="HumanStandard">
        <route edges="bottom1to1/0 1/0to1/1 1/1to1/2 1/2to1/3 1/3to1/4 1/4to1/5 1/5to1/6 1/6to1/7 1/7to1/8 1/8to2/8 2/8to3/8 3/8to4/8 4/8to5/8 5/8to6/8 6/8to7/8 7/8to8/8 8/8to8/7" />
    </vehicle>
    <vehicle depart="12.50" id="25" type="HumanStandard">
        <route edges="right6to9/6 9/6to8/6 8/6to7/6 7/6to6/6 6/6to5/6 5/6to4/6 4/6to3/6 3/6to2/6 2/6to1/6 1/6to0/6 0/6to0/5" />
    </vehicle>
    <vehicle depart="13.00" id="26" type="HumanStandard">
        <route edges="8/8to8/9 8/9to7/9 7/9to7/8 7/8to7/7 7/7to7/6 7/6to7/5 7/5to7/4 7/4to7/3 7/3to7/2 7/2to7/1 7/1to7/0 7/0tobottom7" />
    </vehicle>
    <vehicle depart="13.50" id="27" type="HumanStandard">
        <route edges="7/0to8/0 8/0to8/1 8/1to7/1 7/1to6/1 6/1to5/1 5/1to4/1 4/1to3/1 3/1to2/1 2/1to1/1 1/1to1/2 1/2to1/3 1/3to1/4 1/4to1/5 1/5to1/6 1/6to1/7 1/7to1/8 1/8to1/9 1/9totop1" />
    </vehicle>
    <vehicle depart="14.00" id="28" type="HumanStandard">
        <route edges="1/6to2/6 2/6to2/5 2/5to2/4 2/4to2/3 2/3to2/2 2/2to2/1 2/1to2/0 2/0to3/0 3/0to4/0 4/0to5/0 5/0to6/0 6/0to7/0 7/0to8/0 8/0to9/0" />
    </vehicle>
    <vehicle depart="14.50" id="29" type="HumanStandard">
        <route edges="0/7to0/6 0/6to0/5 0/5to0/4 0/4to0/3 0/3to0/2 0/2to1/2 1/2to2/2 2/2to3/2 3/2to4/2 4/2to5/2 5/2to6/2 6/2to7/2 7/2to8/2 8/2to9/2 9/2to9/1 9/1to8/1" />
    </vehicle>
    <vehicle depart="15.00" id="30" type="HumanStandard">
        <route edges="7/9to7/8 7/8to7/7 7/7to7/6 7/6to7/5 7/5to7/4 7/4to7/3 7/3to7/2 7/2to7/1 7/1to7/0 7/0to8/0 8/0tobottom8" />
    </vehicle>
    <vehicle depart="15.50" id="31" type="HumanStandard">
        <route edges="6/1to6/2 6/2to5/2 5/2to4/2 4/2to4/3 4/3to4/4 4/4to4/5 4/5to4/6 4/6to4/7 4/7to4/8 4/8to4/9 4/9totop4" />
    </vehicle>
    <vehicle depart="16.00" id="32" type="HumanStandard">
        <route edges="8/0to9/0 9/0to9/1 9/1to8/1 8/1to7/1 7/1to6/1 6/1to5/1 5/1to4/1 4/1to3/1 3/1to2/1 2/1to1/1 1/1to0/1 0/1to0/2 0/2to0/3 0/3to0/4 0/4to0/5 0/5to0/6 0/6to0/7 0/7to0/8 0/8to0/9" />
    </vehicle>
    <vehicle depart="16.50" id="33" type="HumanStandard">
        <route edges="0/3to0/4 0/4to0/5 0/5to0/6 0/6to0/7 0/7to0/8 0/8to0/9 0/9to1/9 1/9to2/9 2/9to3/9 3/9to4/9 4/9to5/9 5/9to6/9 6/9to7/9 7/9to8/9 8/9to9/9 9/9totop9" />
    </vehicle>
    <vehicle depart="17.00" id="34" type="HumanStandard">
        <route edges="6/8to5/8 5/8to4/8 4/8to3/8 3/8to2/8 2/8to1/8 1/8to0/8 0/8to0/7 0/7to0/6 0/6to0/5 0/5to0/4 0/4to0/3 0/3to0/2 0/2to0/1 0/1toleft1" />
    </vehicle>
    <vehicle depart="17.50" id="35" type="HumanStandard">
        <route edges="0/1to0/0 0/0to1/0 1/0to1/1 1/1to1/2 1/2to2/2 2/2to3/2 3/2to4/2 4/2to5/2 5/2to6/2 6/2to7/2 7/2to8/2 8/2to9/2 9/2to9/3" />
    </vehicle>
    <vehicle depart="18.00" id="36" type="HumanStandard">
        <route edges="9/9to9/8 9/8to8/8 8/8to7/8 7/8to6/8 6/8to5/8 5/8to4/8 4/8to4/7 4/7to4/6 4/6to4/5 4/5to4/4 4/4to4/3 4/3to4/2 4/2to4/1 4/1to3/1" />
    </vehicle>
    <vehicle depart="18.50" id="37" type="HumanStandard">
        <route edges="8/8to7/8 7/8to6/8 6/8to5/8 5/8to4/8 4/8to3/8 3/8to2/8 2/8to2/7 2/7to2/6 2/6to2/5 2/5to2/4 2/4to2/3 2/3to2/2 2/2to2/1 2/1to1/1" />
    </vehicle>
    <vehicle depart="19.00" id="38" type="HumanStandard">
        <route edges="0/1to0/2 0/2to0/3 0/3to0/4 0/4to0/5 0/5to1/5 1/5to2/5 2/5to3/5 3/5to4/5 4/5to5/5 5/5to6/5 6/5to7/5 7/5to8/5 8/5to9/5 9/5toright5" />
    </vehicle>
    <vehicle depart="19.50" id="39" type="HumanStandard">
        <route edges="right0to9/0 9/0to8/0 8/0to7/0 7/0to7/1 7/1to7/2 7/2to7/3 7/3to7/4 7/4to7/5 7/5to7/6 7/6to7/7 7/7to7/8 7/8to7/9" />
    </vehicle>
    <vehicle depart="20.00" id="40" type="HumanStandard">
        <route edges="bottom0to0/0 0/0to0/1 0/1to0/2 0/2to0/3 0/3to0/4 0/4to0/5 0/5to0/6 0/6to0/7 0/7to1/7 1/7to2/7 2/7to3/7 3/7to4/7 4/7to5/7 5/7to6/7 6/7to7/7 7/7to7/8 7/8to6/8" />
    </vehicle>
    <vehicle depart="20.50" id="41" type="HumanStandard">
        <route edges="left8to0/8 0/8to0/7 0/7to0/6 0/6to0/5 0/5to0/4 0/4to0/3 0/3to1/3 1/3to2/3 2/3to3/3 3/3to4/3 4/3to5/3 5/3to6/3 6/3to7/3 7/3to8/3 8/3to9/3 9/3to9/2" />
    </vehicle>
    <vehicle depart="21.00" id="42" type="HumanStandard">
        <route edges="bottom1to1/0 1/0to1/1 1/1to1/2 1/2to1/3 1/3to1/4 1/4to1/5 1/5to1/6 1/6to1/7 1/7to1/8" />
    </vehicle>
    <vehicle depart="21.50" id="43" type="HumanStandard">
        <route edges="8/9to9/9 9/9to9/8 9/8to8/8 8/8to7/8 7/8to6/8 6/8to5/8 5/8to4/8 4/8to3/8 3/8to3/7 3/7to3/6 3/6to3/5 3/5to3/4 3/4to3/3 3/3to3/2 3/2to3/1 3/1to3/0 3/0to2/0 2/0to2/1" />
    </vehicle>
    <vehicle depart="22.00" id="44" type="HumanStandard">
        <route edges="left4to0/4 0/4to0/3 0/3to0/2 0/2to1/2 1/2to2/2 2/2to3/2 3/2to4/2 4/2to5/2 5/2to6/2 6/2to7/2 7/2to8/2" />
    </vehicle>
    <vehicle depart="22.50" id="45" type="HumanStandard">
        <route edges="0/1to0/2 0/2to0/3 0/3to0/4 0/4to0/5 0/5to0/6 0/6to1/6 1/6to2/6 2/6to3/6 3/6to4/6 4/6to5/6 5/6to6/6 6/6to7/6 7/6to8/6 8/6to8/7 8/7to7/7" />
    </vehicle>
    <vehicle depart="23.00" id="46" type="HumanStandard">
        <route edges="1/0to0/0 0/0to0/1 0/1to0/2 0/2to0/3 0/3to0/4 0/4to0/5 0/5to0/6 0/6to0/7 0/7to0/8 0/8to1/8 1/8to2/8 2/8to3/8 3/8to4/8 4/8to5/8 5/8to6/8 6/8to6/9" />
    </vehicle>
    <vehicle depart="23.50" id="47" type="HumanStandard">
        <route edges="8/6to7/6 7/6to6/6 6/6to5/6 5/6to4/6 4/6to3/6 3/6to2/6 2/6to1/6 1/6to0/6 0/6to0/7 0/7to0/8 0/8to0/9 0/9toleft9" />
    </vehicle>
    <vehicle depart="24.00" id="48" type="HumanStandard">
        <route edges="top8to8/9 8/9to7/9 7/9to6/9 6/9to5/9 5/9to4/9 4/9to3/9 3/9to2/9 2/9to1/9 1/9to1/8 1/8to1/7 1/7to1/6 1/6to1/5 1/5to1/4 1/4to1/3 1/3to1/2 1/2to1/1 1/1to1/0 1/0tobottom1" />
    </vehicle>
    <vehicle depart="24.50" id="49" type="HumanStandard">
        <route edges="0/4to0/3 0/3to1/3 1/3to1/4 1/4to1/5 1/5to1/6 1/6to1/7 1/7to1/8 1/8to2/8 2/8to3/8 3/8to4/8 4/8to5/8 5/8to6/8 6/8to7/8 7/8to8/8 8/8to9/8 9/8to9/9 9/9to8/9" />
    </vehicle>
    <vehicle depart="25.00" id="50" type="HumanStandard">
        <route edges="bottom9to9/0 9/0to8/0 8/0to7/0 7/0to6/0 6/0to5/0 5/0to4/0 4/0to3/0 3/0to2/0 2/0to1/0 1/0to0/0 0/0to0/1 0/1to0/2 0/2to0/3 0/3to0/4 0/4to0/5 0/5to0/6 0/6to0/7 0/7to0/8 0/8to0/9 0/9toleft9" />
    </vehicle>
    <vehicle depart="25.50" id="51" type="HumanStandard">
        <route edges="0/2to1/2 1/2to1/3 1/3to1/4 1/4to1/5 1/5to1/6 1/6to1/7 1/7to2/7 2/7to3/7 3/7to4/7 4/7to5/7 5/7to6/7 6/7to7/7 7/7to8/7 8/7to9/7 9/7to9/8" />
    </vehicle>
    <vehicle depart="26.00" id="52" type="HumanStandard">
        <route edges="8/8to9/8 9/8to9/7 9/7to8/7 8/7to7/7 7/7to6/7 6/7to5/7 5/7to4/7 4/7to3/7 3/7to3/6 3/6to3/5 3/5to3/4 3/4to3/3 3/3to3/2 3/2to3/1 3/1to3/0" />
    </vehicle>
    <vehicle depart="26.50" id="53" type="HumanStandard">
        <route edges="right7to9/7 9/7to8/7 8/7to7/7 7/7to6/7 6/7to5/7 5/7to4/7 4/7to3/7 3/7to2/7 2/7to2/6 2/6to2/5 2/5to2/4 2/4to2/3 2/3to2/2 2/2to1/2" />
    </vehicle>
    <vehicle depart="27.00" id="54" type="HumanStandard">
        <route edges="8/9to8/8 8/8to7/8 7/8to6/8 6/8to5/8 5/8to5/7 5/7to5/6 5/6to5/5 5/5to5/4 5/4to5/3 5/3to5/2 5/2to5/1 5/1to5/0 5/0to6/0" />
    </vehicle>
    <vehicle depart="27.50" id="55" type="HumanStandard">
        <route edges="0/7to1/7 1/7to1/6 1/6to1/5 1/5to1/4 1/4to1/3 1/3to1/2 1/2to1/1 1/1to2/1 2/1to3/1 3/1to4/1 4/1to5/1 5/1to6/1 6/1to7/1 7/1to8/1" />
    </vehicle>
    <vehicle depart="28.00" id="56" type="HumanStandard">
        <route edges="top5to5/9 5/9to5/8 5/8to5/7 5/7to5/6 5/6to5/5 5/5to5/4 5/4to5/3 5/3to5/2 5/2to6/2 6/2to7/2 7/2to8/2 8/2to9/2 9/2toright2" />
    </vehicle>
    <vehicle depart="28.50" id="57" type="HumanStandard">
        <route edges="3/9to4/9 4/9to4/8 4/8to4/7 4/7to4/6 4/6to4/5 4/5to4/4 4/4to4/3 4/3to4/2 4/2to4/1 4/1to4/0 4/0to5/0" />
    </vehicle>
    <vehicle depart="29.00" id="58" type="HumanStandard">
        <route edges="1/8to1/9 1/9to2/9 2/9to3/9 3/9to4/9 4/9to5/9 5/9to6/9 6/9to7/9 7/9to8/9 8/9to9/9 9/9toright9" />
    </vehicle>
    <vehicle depart="29.50" id="59" type="HumanStandard">
        <route edges="right4to9/4 9/4to8/4 8/4to7/4 7/4to6/4 6/4to5/4 5/4to4/4 4/4to3/4 3/4to2/4 2/4to1/4 1/4to0/4 0/4to0/5 0/5to0/6 0/6to0/7 0/7toleft7" />
    </vehicle>
    <vehicle depart="30.00" id="60" type="HumanStandard">
        <route edges="1/6to1/7 1/7to2/7 2/7to2/6 2/6to2/5 2/5to2/4 2/4to2/3 2/3to2/2 2/2to2/1 2/1to3/1 3/1to4/1 4/1to5/1 5/1to6/1 6/1to7/1 7/1to8/1 8/1to9/1 9/1toright1" />
    </vehicle>
    <vehicle depart="30.50" id="61" type="HumanStandard">
        <route edges="9/7to9/6 9/6to8/6 8/6to7/6 7/6to6/6 6/6to5/6 5/6to4/6 4/6to3/6 3/6to2/6 2/6to1/6 1/6to0/6 0/6to0/5 0/5toleft5" />
    </vehicle>
    <vehicle depart="31.00" id="62" type="HumanStandard">
        <route edges="bottom8to8/0 8/0to7/0 7/0to6/0 6/0to5/0 5/0to4/0 4/0to3/0 3/0to3/1 3/1to3/2 3/2to3/3 3/3to3/4 3/4to3/5 3/5to3/6 3/6to2/6" />
    </vehicle>
    <vehicle depart="31.50" id="63" type="HumanStandard">
        <route edges="bottom3to3/0 3/0to3/1 3/1to3/2 3/2to3/3 3/3to3/4 3/4to3/5 3/5to3/6 3/6to3/7 3/7to3/8 3/8to3/9 3/9to4/9 4/9totop4" />
    </vehicle>
    <vehicle depart="32.00" id="64" type="HumanStandard">
        <route edges="9/8to9/9 9/9to8/9 8/9to7/9 7/9to6/9 6/9to5/9 5/9to4/9 4/9to3/9 3/9to2/9 2/9to1/9 1/9to0/9 0/9toleft9" />
    </vehicle>
    <vehicle depart="32.50" id="65" type="HumanStandard">
        <route edges="top0to0/9 0/9to0/8 0/8to0/7 0/7to0/6 0/6to0/5 0/5to0/4 0/4to0/3 0/3to0/2 0/2to0/1 0/1to0/0 0/0to1/0 1/0to2/0 2/0to3/0 3/0to4/0 4/0to5/0 5/0to6/0" />
    </vehicle>
    <vehicle depart="33.00" id="66" type="HumanStandard">
        <route edges="1/1to1/0 1/0to2/0 2/0to2/1 2/1to2/2 2/2to2/3 2/3to2/4 2/4to2/5 2/5to2/6 2/6to3/6 3/6to4/6 4/6to5/6 5/6to6/6 6/6to7/6 7/6to8/6 8/6to9/6" />
    </vehicle>
    <vehicle depart="33.50" id="67" type="HumanStandard">
        <route edges="top0to0/9 0/9to0/8 0/8to1/8 1/8to2/8 2/8to3/8 3/8to4/8 4/8to5/8 5/8to6/8 6/8to7/8 7/8to8/8 8/8to9/8 9/8to9/7" />
    </vehicle>
    <vehicle depart="34.00" id="68" type="HumanStandard">
        <route edges="9/0to9/1 9/1to8/1 8/1to7/1 7/1to6/1 6/1to5/1 5/1to4/1 4/1to3/1 3/1to2/1 2/1to2/2 2/2to2/3 2/3to2/4 2/4to2/5 2/5to1/5" />
    </vehicle>
    <vehicle depart="34.50" id="69" type="HumanStandard">
        <route edges="right6to9/6 9/6to8/6 8/6to7/6 7/6to6/6 6/6to5/6 5/6to4/6 4/6to3/6 3/6to2/6 2/6to2/5 2/5to2/4 2/4to2/3 2/3to2/2 2/2to1/2 1/2to1/3" />
    </vehicle>
    <vehicle depart="35.00" id="70" type="HumanStandard">
        <route edges="9/7to9/6 9/6to8/6 8/6to7/6 7/6to6/6 6/6to5/6 5/6to4/6 4/6to3/6 3/6to2/6 2/6to1/6 1/6to0/6 0/6to0/7 0/7to0/8 0/8to0/9 0/9toleft9" />
    </vehicle>
    <vehicle depart="35.50" id="71" type="HumanStandard">
        <route edges="top8to8/9 8/9to7/9 7/9to6/9 6/9to5/9 5/9to4/9 4/9to3/9 3/9to2/9 2/9to1/9 1/9to0/9 0/9to0/8 0/8to0/7 0/7toleft7" />
    </vehicle>
    <vehicle depart="36.00" id="72" type="HumanStandard">
        <route edges="0/1to1/1 1/1to1/2 1/2to1/3 1/3to1/4 1/4to1/5 1/5to2/5 2/5to3/5 3/5to4/5 4/5to5/5 5/5to6/5 6/5to7/5 7/5to8/5 8/5to9/5" />
    </vehicle>
    <vehicle depart="36.50" id="73" type="HumanStandard">
        <route edges="1/0to2/0 2/0to2/1 2/1to2/2 2/2to2/3 2/3to2/4 2/4to2/5 2/5to2/6 2/6to2/7 2/7to3/7 3/7to4/7 4/7to5/7 5/7to6/7 6/7to7/7 7/7to7/8" />
    </vehicle>
    <vehicle depart="37.00" id="74" type="HumanStandard">
        <route edges="top0to0/9 0/9to0/8 0/8to0/7 0/7to0/6 0/6to0/5 0/5to1/5 1/5to2/5 2/5to3/5 3/5to4/5 4/5to5/5 5/5to6/5 6/5to7/5 7/5to8/5 8/5to9/5 9/5toright5" />
    </vehicle>
    <vehicle depart="37.50" id="75" type="HumanStandard">
        <route edges="3/9to2/9 2/9to2/8 2/8to2/7 2/7to2/6 2/6to2/5 2/5to2/4 2/4to2/3 2/3to2/2 2/2to2/1 2/1to2/0" />
    </vehicle>
    <vehicle depart="38.00" id="76" type="HumanStandard">
        <route edges="8/7to7/7 7/7to6/7 6/7to5/7 5/7to4/7 4/7to3/7 3/7to2/7 2/7to2/6 2/6to2/5 2/5to2/4 2/4to2/3 2/3to2/2 2/2to2/1 2/1to2/0 2/0to1/0 1/0to1/1" />
    </vehicle>
    <vehicle depart="38.50" id="77" type="HumanStandard">
        <route edges="5/9to5/8 5/8to5/7 5/7to5/6 5/6to5/5 5/5to5/4 5/4to5/3 5/3to5/2 5/2to5/1 5/1to5/0 5/0to6/0 6/0to7/0" />
    </vehicle>
    <vehicle depart="39.00" id="78" type="HumanStandard">
        <route edges="top0to0/9 0/9to0/8 0/8to0/7 0/7to0/6 0/6to0/5 0/5to1/5 1/5to2/5 2/5to3/5 3/5to4/5 4/5to5/5 5/5to6/5 6/5to7/5 7/5to8/5 8/5to8/4 8/4to7/4" />
    </vehicle>
    <vehicle depart="39.50" id="79" type="HumanStandard">
        <route edges="9/7to9/6 9/6to8/6 8/6to7/6 7/6to6/6 6/6to5/6 5/6to4/6 4/6to3/6 3/6to2/6 2/6to1/6 1/6to0/6 0/6toleft6" />
    </vehicle>
    <vehicle depart="40.00" id="80" type="HumanStandard">
        <route edges="top0to0/9 0/9to0/8 0/8to0/7 0/7to0/6 0/6to0/5 0/5to0/4 0/4to1/4 1/4to2/4 2/4to3/4 3/4to4/4 4/4to5/4 5/4to6/4 6/4to7/4" />
    </vehicle>
    <vehicle depart="40.50" id="81" type="HumanStandard">
        <route edges="9/8to9/9 9/9to8/9 8/9to7/9 7/9to6/9 6/9to5/9 5/9to4/9 4/9to3/9 3/9to2/9 2/9to1/9 1/9to0/9 0/9to0/8 0/8to0/7 0/7to0/6" />
    </vehicle>
    <vehicle depart="41.00" id="82" type="HumanStandard">
        <route edges="0/2to0/1 0/1to1/1 1/1to1/2 1/2to1/3 1/3to1/4 1/4to1/5 1/5to1/6 1/6to1/7 1/7to1/8 1/8to2/8 2/8to3/8 3/8to4/8 4/8to5/8 5/8to6/8 6/8to7/8 7/8to7/9" />
    </vehicle>
    <vehicle depart="41.50" id="83" type="HumanStandard">
        <route edges="9/0to8/0 8/0to7/0 7/0to6/0 6/0to5/0 5/0to4/0 4/0to3/0 3/0to2/0 2/0to1/0 1/0to0/0 0/0to0/1 0/1to0/2 0/2to0/3 0/3to0/4 0/4toleft4" />
    </vehicle>
    <vehicle depart="42.00" id="84" type="HumanStandard">
        <route edges="left9to0/9 0/9to0/8 0/8to0/7 0/7to0/6 0/6to0/5 0/5to0/4 0/4to0/3 0/3to1/3 1/3to2/3 2/3to3/3 3/3to4/3 4/3to5/3 5/3to6/3 6/3to7/3 7/3to8/3 8/3to9/3" />
    </vehicle>
    <vehicle depart="42.50" id="85" type="HumanStandard">
        <route edges="left7to0/7 0/7to0/6 0/6to0/5 0/5to0/4 0/4to0/3 0/3to0/2 0/2to1/2 1/2to2/2 2/2to3/2 3/2to4/2 4/2to5/2 5/2to6/2 6/2to7/2 7/2to8/2 8/2to9/2 9/2to9/3" />
    </vehicle>
    <vehicle depart="43.00" id="86" type="HumanStandard">
        <route edges="7/1to6/1 6/1to6/2 6/2to6/3 6/3to6/4 6/4to6/5 6/5to6/6 6/6to6/7 6/7to6/8 6/8to6/9 6/9to7/9 7/9totop7" />
    </vehicle>
    <vehicle depart="43.50" id="87" type="HumanStandard">
        <route edges="9/9to9/8 9/8to8/8 8/8to7/8 7/8to6/8 6/8to5/8 5/8to4/8 4/8to3/8 3/8to2/8 2/8to2/7 2/7to2/6 2/6to2/5 2/5to2/4 2/4to2/3 2/3to2/2 2/2to1/2 1/2to1/3" />
    </vehicle>
    <vehicle depart="44.00" id="88" type="HumanStandard">
        <route edges="0/8to0/9 0/9to1/9 1/9to1/8 1/8to2/8 2/8to3/8 3/8to4/8 4/8to5/8 5/8to6/8 6/8to7/8 7/8to8/8 8/8to9/8 9/8to9/9" />
    </vehicle>
    <vehicle depart="44.50" id="89" type="HumanStandard">
        <route edges="8/7to7/7 7/7to6/7 6/7to5/7 5/7to4/7 4/7to3/7 3/7to2/7 2/7to1/7 1/7to0/7 0/7to0/6 0/6to0/5 0/5to0/4 0/4toleft4" />
    </vehicle>
    <vehicle depart="45.00" id="90" type="HumanStandard">
        <route edges="9/3to8/3 8/3to7/3 7/3to6/3 6/3to5/3 5/3to4/3 4/3to3/3 3/3to2/3 2/3to1/3 1/3to0/3 0/3to0/4 0/4to0/5 0/5to0/6 0/6to0/7 0/7to0/8" />
    </vehicle>
    <vehicle depart="45.50" id="91" type="HumanStandard">
        <route edges="left2to0/2 0/2to0/3 0/3to0/4 0/4to1/4 1/4to2/4 2/4to3/4 3/4to4/4 4/4to5/4 5/4to6/4 6/4to7/4 7/4to8/4 8/4to9/4 9/4to9/3" />
    </vehicle>
    <vehicle depart="46.00" id="92" type="HumanStandard">
        <route edges="9/2to9/3 9/3to8/3 8/3to7/3 7/3to6/3 6/3to5/3 5/3to4/3 4/3to3/3 3/3to2/3 2/3to1/3 1/3to1/4 1/4to1/5 1/5to1/6 1/6to1/7 1/7to1/8 1/8to1/9 1/9to0/9" />
    </vehicle>
    <vehicle depart="46.50" id="93" type="HumanStandard">
        <route edges="1/0to2/0 2/0to2/1 2/1to2/2 2/2to2/3 2/3to2/4 2/4to3/4 3/4to4/4 4/4to5/4 5/4to6/4 6/4to7/4 7/4to8/4 8/4to9/4 9/4to9/5" />
    </vehicle>
    <vehicle depart="47.00" id="94" type="HumanStandard">
        <route edges="left4to0/4 0/4to0/3 0/3to0/2 0/2to1/2 1/2to2/2 2/2to3/2 3/2to4/2 4/2to5/2 5/2to6/2 6/2to7/2 7/2to8/2 8/2to8/3" />
    </vehicle>
    <vehicle depart="47.50" id="95" type="HumanStandard">
        <route edges="bottom9to9/0 9/0to8/0 8/0to7/0 7/0to6/0 6/0to5/0 5/0to4/0 4/0to3/0 3/0to2/0 2/0to1/0 1/0to0/0 0/0to0/1 0/1to0/2 0/2to0/3 0/3to0/4 0/4to1/4" />
    </vehicle>
    <vehicle depart="48.00" id="96" type="HumanStandard">
        <route edges="0/2to0/3 0/3to1/3 1/3to2/3 2/3to3/3 3/3to4/3 4/3to5/3 5/3to6/3 6/3to7/3 7/3to8/3 8/3to9/3 9/3to9/2" />
    </vehicle>
    <vehicle depart="48.50" id="97" type="HumanStandard">
        <route edges="2/0to3/0 3/0to3/1 3/1to3/2 3/2to3/3 3/3to3/4 3/4to3/5 3/5to3/6 3/6to3/7 3/7to4/7 4/7to5/7 5/7to6/7 6/7to7/7 7/7to8/7 8/7to8/8" />
    </vehicle>
    <vehicle depart="49.00" id="98" type="HumanStandard">
        <route edges="9/4to8/4 8/4to7/4 7/4to6/4 6/4to5/4 5/4to4/4 4/4to3/4 3/4to2/4 2/4to1/4 1/4to1/5 1/5to1/6 1/6to1/7 1/7to1/8 1/8to0/8 0/8to0/7" />
    </vehicle>
    <vehicle depart="49.50" id="99" type="HumanStandard">
        <route edges="bottom2to2/0 2/0to2/1 2/1to2/2 2/2to2/3 2/3to2/4 2/4to2/5 2/5to2/6 2/6to2/7 2/7to2/8 2/8to3/8 3/8to4/8" />
    </vehicle>
    <vehicle depart="50.00" id="100" type="HumanStandard">
        <route edges="1/2to1/1 1/1to2/1 2/1to2/2 2/2to2/3 2/3to2/4 2/4to2/5 2/5to3/5 3/5to4/5 4/5to5/5 5/5to6/5 6/5to7/5 7/5to8/5 8/5to9/5 9/5toright5" />
    </vehicle>
    <vehicle depart="50.50" id="101" type="HumanStandard">
        <route edges="left9to0/9 0/9to0/8 0/8to0/7 0/7to0/6 0/6to1/6 1/6to2/6 2/6to3/6 3/6to4/6 4/6to5/6 5/6to6/6 6/6to7/6 7/6to8/6 8/6to9/6 9/6toright6" />
    </vehicle>
    <vehicle depart="51.00" id="102" type="HumanStandard">
        <route edges="9/5to8/5 8/5to7/5 7/5to6/5 6/5to5/5 5/5to4/5 4/5to3/5 3/5to2/5 2/5to1/5 1/5to0/5 0/5to0/4 0/4to0/3 0/3to0/2 0/2to0/1 0/1toleft1" />
    </vehicle>
    <vehicle depart="51.50" id="103" type="HumanStandard">
        <route edges="top9to9/9 9/9to8/9 8/9to7/9 7/9to6/9 6/9to5/9 5/9to4/9 4/9to3/9 3/9to2/9 2/9to1/9 1/9to0/9 0/9to0/8 0/8to0/7 0/7to0/6 0/6to0/5 0/5to0/4 0/4to1/4" />
    </vehicle>
    <vehicle depart="52.00" id="104" type="HumanStandard">
        <route edges="9/1to9/0 9/0to8/0 8/0to7/0 7/0to6/0 6/0to5/0 5/0to4/0 4/0to3/0 3/0to2/0 2/0to1/0 1/0to0/0 0/0to0/1 0/1to0/2 0/2to0/3 0/3to0/4 0/4to0/5 0/5to0/6 0/6toleft6" />
    </vehicle>
    <vehicle depart="52.50" id="105" type="HumanStandard">
        <route edges="2/2to1/2 1/2to1/3 1/3to1/4 1/4to1/5 1/5to1/6 1/6to1/7 1/7to1/8 1/8to1/9 1/9to2/9 2/9to3/9 3/9to4/9 4/9to5/9 5/9to6/9 6/9to7/9 7/9to8/9 8/9to9/9 9/9to9/8" />
    </vehicle>
    <vehicle depart="53.00" id="106" type="HumanStandard">
        <route edges="2/0to1/0 1/0to1/1 1/1to1/2 1/2to1/3 1/3to1/4 1/4to1/5 1/5to1/6 1/6to1/7 1/7to1/8 1/8to2/8 2/8to3/8 3/8to4/8 4/8to5/8 5/8to6/8 6/8to7/8 7/8to8/8 8/8to9/8 9/8to9/9 9/9to8/9" />
    </vehicle>
    <vehicle depart="53.50" id="107" type="HumanStandard">
        <route edges="1/0to1/1 1/1to1/2 1/2to1/3 1/3to1/4 1/4to1/5 1/5to1/6 1/6to1/7 1/7to2/7 2/7to3/7 3/7to4/7 4/7to5/7 5/7to6/7 6/7to7/7 7/7to8/7 8/7to9/7 9/7to9/6" />
    </vehicle>
    <vehicle depart="54.00" id="108" type="HumanStandard">
        <route edges="0/1to0/2 0/2to0/3 0/3to1/3 1/3to2/3 2/3to3/3 3/3to4/3 4/3to5/3 5/3to6/3 6/3to7/3 7/3to8/3 8/3to9/3 9/3to9/2" />
    </vehicle>
    <vehicle depart="54.50" id="109" type="HumanStandard">
        <route edges="5/0to5/1 5/1to4/1 4/1to3/1 3/1to3/2 3/2to3/3 3/3to3/4 3/4to3/5 3/5to3/6 3/6to3/7 3/7to3/8 3/8to3/9" />
    </vehicle>
    <vehicle depart="55.00" id="110" type="HumanStandard">
        <route edges="top9to9/9 9/9to8/9 8/9to7/9 7/9to6/9 6/9to5/9 5/9to4/9 4/9to3/9 3/9to2/9 2/9to2/8 2/8to2/7 2/7to2/6 2/6to2/5 2/5to2/4 2/4to2/3 2/3to2/2" />
    </vehicle>
    <vehicle depart="55.50" id="111" type="HumanStandard">
        <route edges="1/2to2/2 2/2to2/3 2/3to2/4 2/4to2/5 2/5to2/6 2/6to2/7 2/7to3/7 3/7to4/7 4/7to5/7 5/7to6/7 6/7to7/7 7/7to8/7 8/7to9/7 9/7to9/8 9/8to8/8" />
    </vehicle>
    <vehicle depart="56.00" id="112" type="HumanStandard">
        <route edges="8/2to7/2 7/2to6/2 6/2to5/2 5/2to4/2 4/2to3/2 3/2to3/3 3/3to3/4 3/4to3/5 3/5to3/6 3/6to3/7 3/7to3/8 3/8to3/9 3/9to2/9" />
    </vehicle>
    <vehicle depart="56.50" id="113" type="HumanStandard">
        <route edges="0/2to1/2 1/2to1/1 1/1to2/1 2/1to3/1 3/1to4/1 4/1to5/1 5/1to6/1 6/1to7/1 7/1to8/1 8/1to9/1 9/1toright1" />
    </vehicle>
    <vehicle depart="57.00" id="114" type="HumanStandard">
        <route edges="7/8to8/8 8/8to8/7 8/7to7/7 7/7to6/7 6/7to5/7 5/7to4/7 4/7to3/7 3/7to2/7 2/7to1/7 1/7to0/7 0/7to0/6 0/6to0/5 0/5to0/4 0/4to0/3 0/3to0/2 0/2to0/1 0/1to1/1" />
    </vehicle>
    <vehicle depart="57.50" id="115" type="HumanStandard">
        <route edges="right3to9/3 9/3to8/3 8/3to7/3 7/3to6/3 6/3to5/3 5/3to4/3 4/3to3/3 3/3to2/3 2/3to1/3 1/3to1/2 1/2to1/1 1/1to1/0 1/0to0/0" />
    </vehicle>
    <vehicle depart="58.00" id="116" type="HumanStandard">
        <route edges="9/9to9/8 9/8to8/8 8/8to7/8 7/8to6/8 6/8to6/7 6/7to6/6 6/6to6/5 6/5to6/4 6/4to6/3 6/3to6/2 6/2to6/1 6/1to6/0" />
    </vehicle>
    <vehicle depart="58.50" id="117" type="HumanStandard">
        <route edges="top8to8/9 8/9to7/9 7/9to6/9 6/9to5/9 5/9to4/9 4/9to4/8 4/8to4/7 4/7to4/6 4/6to4/5 4/5to4/4 4/4to4/3 4/3to4/2 4/2to4/1 4/1to3/1" />
    </vehicle>
    <vehicle depart="59.00" id="118" type="HumanStandard">
        <route edges="top1to1/9 1/9to1/8 1/8to1/7 1/7to1/6 1/6to1/5 1/5to1/4 1/4to2/4 2/4to3/4 3/4to4/4 4/4to5/4 5/4to6/4 6/4to7/4 7/4to8/4 8/4to9/4 9/4to9/3" />
    </vehicle>
    <vehicle depart="59.50" id="119" type="HumanStandard">
        <route edges="8/3to8/4 8/4to7/4 7/4to6/4 6/4to5/4 5/4to4/4 4/4to3/4 3/4to2/4 2/4to1/4 1/4to1/5 1/5to1/6 1/6to1/7 1/7to1/8 1/8to1/9 1/9totop1" />
    </vehicle>
    <vehicle depart="60.00" id="120" type="HumanStandard">
        <route edges="1/5to2/5 2/5to2/6 2/6to2/7 2/7to2/8 2/8to2/9 2/9to3/9 3/9to4/9 4/9to5/9 5/9to6/9 6/9to7/9 7/9to8/9 8/9to9/9 9/9toright9" />
    </vehicle>
    <vehicle depart="60.50" id="121" type="HumanStandard">
        <route edges="5/9to6/9 6/9to6/8 6/8to5/8 5/8to4/8 4/8to4/7 4/7to4/6 4/6to4/5 4/5to4/4 4/4to4/3 4/3to4/2 4/2to4/1 4/1to4/0 4/0to5/0" />
    </vehicle>
    <vehicle depart="61.00" id="122" type="HumanStandard">
        <route edges="9/9to8/9 8/9to7/9 7/9to6/9 6/9to6/8 6/8to6/7 6/7to6/6 6/6to6/5 6/5to6/4 6/4to6/3 6/3to6/2 6/2to6/1 6/1to6/0 6/0to7/0" />
    </vehicle>
    <vehicle depart="61.50" id="123" type="HumanStandard">
        <route edges="bottom8to8/0 8/0to7/0 7/0to6/0 6/0to5/0 5/0to4/0 4/0to3/0 3/0to2/0 2/0to2/1 2/1to2/2 2/2to2/3 2/3to2/4 2/4to2/5 2/5to2/6 2/6to2/7 2/7to2/8" />
    </vehicle>
    <vehicle depart="62.00" id="124" type="HumanStandard">
        <route edges="5/8to6/8 6/8to6/7 6/7to6/6 6/6to6/5 6/5to6/4 6/4to6/3 6/3to6/2 6/2to6/1 6/1to6/0 6/0to7/0 7/0to8/0 8/0to9/0 9/0toright0" />
    </vehicle>
    <vehicle depart="62.50" id="125" type="HumanStandard">
        <route edges="2/0to2/1 2/1to1/1 1/1to1/2 1/2to1/3 1/3to1/4 1/4to1/5 1/5to1/6 1/6to1/7 1/7to1/8 1/8to1/9" />
    </vehicle>
    <vehicle depart="63.00" id="126" type="HumanStandard">
        <route edges="0/9to1/9 1/9to1/8 1/8to1/7 1/7to1/6 1/6to1/5 1/5to1/4 1/4to1/3 1/3to1/2 1/2to1/1 1/1to1/0 1/0to2/0 2/0to3/0 3/0to4/0 4/0to5/0 5/0to6/0 6/0tobottom6" />
    </vehicle>
    <vehicle depart="63.50" id="127" type="HumanStandard">
        <route edges="9/0to9/1 9/1to8/1 8/1to7/1 7/1to6/1 6/1to5/1 5/1to4/1 4/1to3/1 3/1to2/1 2/1to1/1 1/1to0/1 0/1to0/2" />
    </vehicle>
    <vehicle depart="64.00" id="128" type="HumanStandard">
        <route edges="8/1to8/2 8/2to7/2 7/2to6/2 6/2to5/2 5/2to4/2 4/2to3/2 3/2to2/2 2/2to1/2 1/2to1/3 1/3to1/4 1/4to1/5 1/5to1/6 1/6to0/6" />
    </vehicle>
    <vehicle depart="64.50" id="129" type="HumanStandard">
        <route edges="3/9to2/9 2/9to2/8 2/8to2/7 2/7to2/6 2/6to2/5 2/5to2/4 2/4to2/3 2/3to2/2 2/2to2/1 2/1to2/0 2/0to3/0 3/0to4/0 4/0tobottom4" />
    </vehicle>
    <vehicle depart="65.00" id="130" type="HumanStandard">
        <route edges="1/0to2/0 2/0to2/1 2/1to2/2 2/2to2/3 2/3to2/4 2/4to2/5 2/5to2/6 2/6to2/7 2/7to2/8 2/8to3/8 3/8to4/8 4/8to5/8 5/8to6/8 6/8to7/8 7/8to8/8 8/8to8/9 8/9to7/9" />
    </vehicle>